powerfactory/powerfactory-converter/src/test/resources/ThreeMIB_T3W_phase_winding1_ratio.xiidm
<?xml version="1.0" encoding="UTF-8"?>
<iidm:network xmlns:iidm="http://www.powsybl.org/schema/iidm/1_17" id="ThreeMIB_T3W_phase_winding1_ratio" caseDate="2021-01-01T10:00:00.000+02:00" forecastDistance="0" sourceFormat="POWER-FACTORY" minimumValidationLevel="STEADY_STATE_HYPOTHESIS">
    <iidm:substation id="S32">
        <iidm:voltageLevel id="VL32" nominalV="18.0" topologyKind="NODE_BREAKER">
            <iidm:nodeBreakerTopology>
                <iidm:busbarSection id="VL32_1 1" node="0"/>
                <iidm:busbarSection id="VL32_2 2" node="3"/>
                <iidm:busbarSection id="VL32_3 3" node="7"/>
                <iidm:switch id="VL32_Switch" kind="BREAKER" open="false" node1="0" node2="1"/>
                <iidm:switch id="VL32_Switch#0" kind="BREAKER" open="false" node1="0" node2="2"/>
                <iidm:switch id="VL32_Switch#1" kind="BREAKER" open="false" node1="3" node2="4"/>
                <iidm:switch id="VL32_Switch#2" kind="BREAKER" open="false" node1="3" node2="5"/>
                <iidm:switch id="VL32_Switch#3" kind="BREAKER" open="false" node1="3" node2="6"/>
                <iidm:switch id="VL32_Switch#4" kind="BREAKER" open="false" node1="7" node2="8"/>
                <iidm:switch id="VL32_Switch#5" kind="BREAKER" open="false" node1="7" node2="9"/>
                <iidm:bus v="18.719999313354492" angle="-3.747093677520752" nodes="0,1,2"/>
                <iidm:bus v="18.719999313354492" angle="3.0309298038482666" nodes="3,4,5,6"/>
                <iidm:bus v="18.360000610351562" angle="-15.142807960510254" nodes="7,8,9"/>
            </iidm:nodeBreakerTopology>
            <iidm:generator id="sym_1_1" energySource="OTHER" minP="0.0" maxP="1404.0" targetP="1404.0" localTargetV="18.719999313354492" localTargetQ="0.0" node="1">
                <iidm:minMaxReactiveLimits minQ="-9900.0009765625" maxQ="9900.0009765625"/>
                <iidm:voltageRegulation mode="VOLTAGE" regulating="true"/>
            </iidm:generator>
            <iidm:generator id="sym_2_1" energySource="OTHER" minP="0.0" maxP="1404.0" targetP="1404.0" localTargetV="18.719999313354492" localTargetQ="0.0" node="4">
                <iidm:minMaxReactiveLimits minQ="-9900.0009765625" maxQ="9900.0009765625"/>
                <iidm:voltageRegulation mode="VOLTAGE" regulating="true"/>
            </iidm:generator>
            <iidm:generator id="sym_3_1" energySource="OTHER" minP="0.0" maxP="800.0" targetP="800.0" localTargetV="18.359999656677246" localTargetQ="0.0" node="8">
                <iidm:minMaxReactiveLimits minQ="-9900.00390625" maxQ="9900.00390625"/>
                <iidm:voltageRegulation mode="VOLTAGE" regulating="true"/>
            </iidm:generator>
        </iidm:voltageLevel>
        <iidm:voltageLevel id="VL35" nominalV="500.0" topologyKind="NODE_BREAKER">
            <iidm:nodeBreakerTopology>
                <iidm:busbarSection id="VL35_4 4" node="0"/>
                <iidm:busbarSection id="VL35_5 5" node="5"/>
                <iidm:busbarSection id="VL35_6 6" node="13"/>
                <iidm:switch id="VL35_Switch" kind="BREAKER" open="false" node1="0" node2="1"/>
                <iidm:switch id="VL35_Switch#0" kind="BREAKER" open="false" node1="0" node2="2"/>
                <iidm:switch id="VL35_Switch#1" kind="BREAKER" open="false" node1="0" node2="3"/>
                <iidm:switch id="VL35_Switch#2" kind="BREAKER" open="false" node1="0" node2="4"/>
                <iidm:switch id="VL35_Switch#3" kind="BREAKER" open="false" node1="5" node2="6"/>
                <iidm:switch id="VL35_Switch#4" kind="BREAKER" open="false" node1="5" node2="7"/>
                <iidm:switch id="VL35_Switch#5" kind="BREAKER" open="false" node1="5" node2="8"/>
                <iidm:switch id="VL35_Switch#6" kind="BREAKER" open="true" node1="5" node2="9"/>
                <iidm:switch id="lod_5_2_sw_fict" fictitious="true" kind="BREAKER" open="true" node1="9" node2="10"/>
                <iidm:switch id="VL35_Switch#7" kind="BREAKER" open="false" node1="5" node2="11"/>
                <iidm:switch id="VL35_Switch#8" kind="BREAKER" open="false" node1="5" node2="12"/>
                <iidm:switch id="VL35_Switch#9" kind="BREAKER" open="false" node1="13" node2="14"/>
                <iidm:switch id="VL35_Switch#10" kind="BREAKER" open="false" node1="13" node2="15"/>
                <iidm:switch id="VL35_Switch#11" kind="BREAKER" open="false" node1="13" node2="16"/>
                <iidm:switch id="VL35_Switch#12" kind="BREAKER" open="false" node1="13" node2="17"/>
                <iidm:bus v="510.6855773925781" angle="-8.607267379760742" nodes="0,1,2,3,4"/>
                <iidm:bus v="496.7574462890625" angle="-20.21532440185547" nodes="5,6,7,8,11,12"/>
                <iidm:bus v="500.0" angle="0.0" nodes="13,14,15,16,17"/>
            </iidm:nodeBreakerTopology>
            <iidm:generator id="sym_6_1" energySource="OTHER" minP="0.0" maxP="9796.6845703125" targetP="9796.6845703125" localTargetV="500.0" localTargetQ="0.0" node="16">
                <iidm:minMaxReactiveLimits minQ="-9900.0" maxQ="9900.0"/>
                <iidm:voltageRegulation mode="VOLTAGE" regulating="true"/>
            </iidm:generator>
            <iidm:load id="lod_4_1" loadType="UNDEFINED" p0="1400.0" q0="100.0" node="2"/>
            <iidm:load id="lod_5_1" loadType="UNDEFINED" p0="2000.0" q0="100.0" node="8"/>
            <iidm:load id="lod_5_2" loadType="UNDEFINED" p0="0.0" q0="50.0" node="10"/>
            <iidm:load id="lod_6_1" loadType="UNDEFINED" p0="10000.0" q0="2000.0" node="15"/>
        </iidm:voltageLevel>
        <iidm:voltageLevel id="VL38" nominalV="16.0" topologyKind="NODE_BREAKER">
            <iidm:nodeBreakerTopology>
                <iidm:busbarSection id="VL38_7 7" node="0"/>
                <iidm:switch id="VL38_Switch" kind="BREAKER" open="false" node1="0" node2="1"/>
                <iidm:switch id="VL38_Switch#0" kind="BREAKER" open="false" node1="0" node2="2"/>
                <iidm:switch id="VL38_Switch#1" kind="BREAKER" open="false" node1="0" node2="3"/>
                <iidm:bus v="15.776790618896484" angle="-17.9434814453125" nodes="0,1,2,3"/>
            </iidm:nodeBreakerTopology>
            <iidm:load id="lod_7_1" loadType="UNDEFINED" p0="1.0" q0="1.0" node="1"/>
        </iidm:voltageLevel>
        <iidm:twoWindingsTransformer id="trf_4_1_1" r="0.0" x="0.020768399119377133" ratedU1="500.0" ratedU2="18.0" ratedS="100.0" node1="4" voltageLevelId1="VL35" node2="2" voltageLevelId2="VL32"/>
        <iidm:twoWindingsTransformer id="trf_6_2_1" r="0.0" x="0.036288000154495244" ratedU1="500.0" ratedU2="18.0" ratedS="100.0" node1="17" voltageLevelId1="VL35" node2="6" voltageLevelId2="VL32"/>
        <iidm:twoWindingsTransformer id="trf_5_3_1" r="0.0" x="0.036288000154495244" ratedU1="500.0" ratedU2="18.0" ratedS="100.0" node1="11" voltageLevelId1="VL35" node2="9" voltageLevelId2="VL32"/>
        <iidm:twoWindingsTransformer id="trf_5_7_1" r="0.0" x="0.028672000122070315" ratedU1="500.0" ratedU2="16.0" ratedS="100.0" node1="12" voltageLevelId1="VL35" node2="3" voltageLevelId2="VL38"/>
        <iidm:threeWindingsTransformer id="tr3_4_2_7_1" r1="-7.799049110263946E-7" x1="1.1395922102037156E-4" g1="0.14457200622558594" b1="-0.10790173166599534" ratedU1="515.0" ratedS1="101.0" r2="2.5065552122616057E-6" x2="1.9130867337766516E-4" ratedU2="18.360000610351562" ratedS2="201.0" r3="8.390848909671972E-7" x3="5.517907605617501E-4" ratedU3="15.680000305175781" ratedS3="301.0" ratedU0="1.0" node1="3" voltageLevelId1="VL35" node2="5" voltageLevelId2="VL32" node3="2" voltageLevelId3="VL38">
            <iidm:phaseTapChanger1 tapPosition="1" loadTapChangingCapabilities="true" regulationMode="CURRENT_LIMITER" regulating="false">
                <iidm:step rho="1.0" alpha="-0.0"/>
                <iidm:step rho="1.0" alpha="-2.0"/>
                <iidm:step rho="1.0" alpha="-25.0"/>
            </iidm:phaseTapChanger1>
        </iidm:threeWindingsTransformer>
    </iidm:substation>
    <iidm:line id="lne_4_5_1" r="0.0" x="90.0" node1="1" voltageLevelId1="VL35" node2="6" voltageLevelId2="VL35"/>
    <iidm:line id="lne_5_6_1" r="0.0" x="300.0" node1="7" voltageLevelId1="VL35" node2="14" voltageLevelId2="VL35"/>
</iidm:network>
